Version 4
SHEET 1 880 680
WIRE 256 -96 256 -128
WIRE 256 -96 128 -96
WIRE 400 -96 256 -96
WIRE 128 -64 128 -96
WIRE -384 -32 -416 -32
WIRE -416 16 -416 -32
WIRE 400 32 400 -96
WIRE 448 32 400 32
WIRE 592 48 560 48
WIRE 128 64 128 16
WIRE 224 64 128 64
WIRE 400 64 304 64
WIRE 448 64 400 64
WIRE -416 144 -416 96
WIRE 128 160 128 64
WIRE 224 160 128 160
WIRE 400 160 400 64
WIRE 400 160 288 160
WIRE -160 208 -416 208
WIRE 80 208 -80 208
WIRE 400 224 400 160
WIRE -416 240 -416 208
WIRE 128 240 128 160
WIRE 80 256 80 208
WIRE -416 336 -416 320
WIRE 80 336 80 304
WIRE 80 336 -416 336
WIRE 128 336 128 320
WIRE 128 336 80 336
WIRE 128 368 128 336
WIRE 272 368 128 368
WIRE 400 368 400 288
WIRE 400 368 272 368
WIRE 272 400 272 368
FLAG -416 144 0
FLAG -384 -32 VCC
FLAG 272 400 0
FLAG 256 -128 VCC
FLAG 592 48 S
SYMBOL res 112 -80 R0
SYMATTR InstName R1
SYMATTR Value 3.3K
SYMBOL res 320 48 R90
WINDOW 0 0 56 VBottom 2
WINDOW 3 32 56 VTop 2
SYMATTR InstName R2
SYMATTR Value 3.3K
SYMBOL cap 384 224 R0
SYMATTR InstName C1
SYMATTR Value 100n
SYMBOL diode 224 176 R270
WINDOW 0 32 32 VTop 2
WINDOW 3 0 32 VBottom 2
SYMATTR InstName D1
SYMATTR Value 1N4148
SYMBOL sw 128 336 M180
SYMATTR InstName S1
SYMATTR Value SWITCH
SYMBOL voltage -416 224 R0
WINDOW 123 0 0 Left 2
WINDOW 39 0 0 Left 2
SYMATTR InstName V1
SYMATTR Value PULSE(0 1 1ms 0 0 0.08ms 0.16ms 5)
SYMBOL voltage -416 0 R0
WINDOW 123 0 0 Left 2
WINDOW 39 0 0 Left 2
SYMATTR InstName V2
SYMATTR Value 3.3
SYMBOL 74hc132 496 -16 R0
SYMATTR InstName U1
SYMATTR SpiceLine VCC=3.3  SPEED=1.0  TRIPDT=1e-9
SYMBOL voltage -64 208 R90
WINDOW 0 -32 56 VBottom 2
WINDOW 3 32 56 VTop 2
WINDOW 123 0 0 Left 2
WINDOW 39 0 0 Left 2
SYMATTR InstName V3
SYMATTR Value PULSE(0 1 1.8ms 0 0 2ms 2ms)
TEXT -192 0 Left 2 !.lib 74hc.lib
TEXT -192 56 Left 2 !.tran 10ms
TEXT -416 400 Left 2 !.model SWITCH SW(Ron=1m Roff=1Meg Vt=0.5 Vh=0.4)
