Version 4
SHEET 1 880 680
WIRE -256 -112 -288 -112
WIRE -288 -64 -288 -112
WIRE 192 32 192 -16
WIRE -288 64 -288 16
WIRE -256 128 -288 128
WIRE 192 144 192 96
WIRE -288 176 -288 128
WIRE 16 192 -32 192
WIRE 128 192 96 192
WIRE 192 288 192 240
WIRE -288 304 -288 256
FLAG 192 -16 VCC
FLAG 192 288 0
FLAG -32 192 S
FLAG -256 -112 VCC
FLAG -256 128 S
FLAG -288 64 0
FLAG -288 304 0
SYMBOL npn 128 144 R0
SYMATTR InstName Q1
SYMATTR Value BC847C
SYMBOL res 112 176 R90
WINDOW 0 0 56 VBottom 2
WINDOW 3 32 56 VTop 2
SYMATTR InstName R1
SYMATTR Value 3K3
SYMBOL res2 176 32 R0
SYMATTR InstName R2
SYMATTR Value 225
SYMBOL voltage -288 -80 R0
WINDOW 123 0 0 Left 2
WINDOW 39 0 0 Left 2
SYMATTR InstName V1
SYMATTR Value 12
SYMBOL voltage -288 160 R0
WINDOW 123 0 0 Left 2
WINDOW 39 0 0 Left 2
SYMATTR InstName V2
SYMATTR Value PULSE(0 3.3 1ms 0 0 1ms 2ms 1)
TEXT -136 -64 Left 2 !.tran 10ms
